/*--------------------------------*- C++ -*----------------------------------*\
| =========                 |                                                 |
| \\      /  F ield         | OpenFOAM: The Open Source CFD Toolbox           |
|  \\    /   O peration     | Version:  2406                                  |
|   \\  /    A nd           | Website:  www.openfoam.com                      |
|    \\/     M anipulation  |                                                 |
\*---------------------------------------------------------------------------*/
FoamFile
{
    version     2.0;
    format      binary;
    arch        "LSB;label=32;scalar=64";
    class       volVectorField;
    location    "0";
    object      U;
}
// * * * * * * * * * * * * * * * * * * * * * * * * * * * * * * * * * * * * * //

dimensions      [ 0 1 -1 0 0 0 0 ];

internalField   uniform ( 206.88836612765 0 0 );

boundaryField
{
    frontAndBack
    {
        type            empty;
    }
    walls
    {
        type            noSlip;
    }
    freestream
    {
        type            freestreamVelocity;
        freestreamValue uniform ( 206.88836612765 0 0 );
        value           uniform ( 206.88836612765 0 0 );
    }
}


// ************************************************************************* //
